58
[Geometry 1]
Fe     0.0000000000   -0.0179390000   -0.0000120000
N     -1.9057160000   -0.3528270000   -0.0000100000
N      0.0000000000   -1.9029690000   -0.0000210000
N      1.9057160000   -0.3528280000    0.0000050000
N     -0.0000000000    1.7873630000    0.0000030000
N      0.0000030000    2.9113410000    0.0000010000
C     -2.2882830000   -1.6367960000   -0.0001240000
C     -1.1971380000   -2.5578180000   -0.0000860000
C      1.1971370000   -2.5578190000    0.0000400000
C      2.2882830000   -1.6367960000    0.0000900000
C     -2.8862880000    0.6723890000    0.0002380000
C     -3.3257850000    1.1972470000   -1.2201750000
C     -4.2442470000    2.2407520000   -1.1976930000
H     -4.5896360000    2.6550450000   -2.1376710000
C     -4.7077410000    2.7570620000    0.0007100000
H     -5.4205620000    3.5713630000    0.0008950000
C     -4.2441570000    2.2402850000    1.1988750000
C     -3.3257060000    1.1967560000    1.2208890000
C      2.8862880000    0.6723890000   -0.0002060000
C      3.3257790000    1.1967170000   -1.2208450000
C      4.2442310000    2.2402440000   -1.1988110000
C      4.7077410000    2.7570610000   -0.0006360000
H      5.4205620000    3.5713620000   -0.0008050000
C      4.2441730000    2.2407920000    1.1977560000
H      4.5894990000    2.6551230000    2.1377410000
C      3.3257130000    1.1972850000    1.2202180000
H      4.5895880000    2.6541590000   -2.1389680000
H     -4.5894500000    2.6542380000    2.1390380000
C     -2.7820120000    0.6627580000   -2.5048530000
H     -3.2039530000    1.1848060000   -3.3608500000
H     -1.6944320000    0.7708720000   -2.5445950000
H     -2.9831260000   -0.4029900000   -2.6282230000
C     -2.7816700000    0.6619650000    2.5053350000
H     -2.9824870000   -0.4038650000    2.6284240000
H     -1.6941130000    0.7703530000    2.5449920000
H     -3.2036380000    1.1836450000    3.3615440000
C      2.7818460000    0.6618540000   -2.5053050000
H      1.6942910000    0.7702350000   -2.5450530000
H      3.2038800000    1.1834860000   -3.3615100000
H      2.9826770000   -0.4039840000   -2.6283130000
C      2.7818350000    0.6628690000    2.5048830000
H      3.2037100000    1.1849650000    3.3608840000
H      1.6942530000    0.7709900000    2.5445340000
H      2.9829340000   -0.4028720000    2.6283350000
C     -3.7168310000   -2.0461810000   -0.0000830000
H     -3.8205460000   -3.1278640000   -0.0030020000
H     -4.2457870000   -1.6602510000    0.8743620000
H     -4.2471510000   -1.6552630000   -0.8714390000
C      3.7168300000   -2.0461820000   -0.0000090000
H      4.2471790000   -1.6553090000    0.8713490000
H      3.8205450000   -3.1278650000    0.0028520000
H      4.2457580000   -1.6602070000   -0.8744520000
C     -1.2095850000   -3.9495720000   -0.0001090000
C      1.2095840000   -3.9495720000    0.0000350000
H     -2.1473100000   -4.4878360000   -0.0001420000
H      2.1473090000   -4.4878360000    0.0000570000
C      0.0000000000   -4.6361420000   -0.0000430000
H      0.0000000000   -5.7179160000   -0.0000550000
58
[Geometry 2]
Fe     0.0000000000   -0.0181680000   -0.0000260000
N     -1.9057310000   -0.3530560000   -0.0000100000
N      0.0000010000   -1.9031800000    0.0000090000
N      1.9057320000   -0.3530560000   -0.0000070000
N      0.0000010000    1.7870590000   -0.0000770000
N     -0.0000020000    2.9109980000   -0.0000930000
C     -2.2883100000   -1.6370700000   -0.0000630000
C     -1.1971210000   -2.5580370000   -0.0000320000
C      1.1971220000   -2.5580370000    0.0000850000
C      2.2883110000   -1.6370700000    0.0001060000
C     -2.8861320000    0.6723470000    0.0002210000
C     -3.3253020000    1.1975540000   -1.2202200000
C     -4.2434470000    2.2413570000   -1.1976350000
H     -4.5885520000    2.6558760000   -2.1375220000
C     -4.7069630000    2.7576840000    0.0007370000
H     -5.4194680000    3.5721200000    0.0009410000
C     -4.2436100000    2.2406170000    1.1988520000
C     -3.3254680000    1.1967980000    1.2209200000
C      2.8861320000    0.6723470000   -0.0002540000
C      3.3254050000    1.1968600000   -1.2209510000
C      4.2435440000    2.2406820000   -1.1988740000
C      4.7069610000    2.7576860000   -0.0007580000
H      5.4194660000    3.5721220000   -0.0009560000
C      4.2435100000    2.2412940000    1.1976120000
H      4.5886730000    2.6557560000    2.1375040000
C      3.3253640000    1.1974930000    1.2201900000
H      4.5887210000    2.6546760000   -2.1389670000
H     -4.5888450000    2.6545540000    2.1389480000
C     -2.7814820000    0.6633810000   -2.5050360000
H     -3.2030890000    1.1858260000   -3.3608430000
H     -1.6939380000    0.7712370000   -2.5445430000
H     -2.9828680000   -0.4021870000   -2.6288950000
C     -2.7817700000    0.6618970000    2.5054850000
H     -2.9829450000   -0.4037900000    2.6286410000
H     -1.6942550000    0.7699660000    2.5452450000
H     -3.2036260000    1.1837100000    3.3615550000
C      2.7816100000    0.6620610000   -2.5055180000
H      1.6940940000    0.7701480000   -2.5451940000
H      3.2034120000    1.1839360000   -3.3615780000
H      2.9827610000   -0.4036170000   -2.6287740000
C      2.7816420000    0.6632170000    2.5050030000
H      3.2033030000    1.1856010000    3.3608210000
H      1.6941000000    0.7710530000    2.5445940000
H      2.9830550000   -0.4023590000    2.6287610000
C     -3.7167830000   -2.0467430000    0.0001450000
H     -3.8202720000   -3.1283650000   -0.0026000000
H     -4.2457230000   -1.6608440000    0.8745120000
H     -4.2472420000   -1.6561290000   -0.8711600000
C      3.7167840000   -2.0467430000    0.0000100000
H      4.2471790000   -1.6560950000    0.8713400000
H      3.8202720000   -3.1283640000    0.0028050000
H      4.2457890000   -1.6608780000   -0.8743310000
C     -1.2095480000   -3.9498140000    0.0000020000
C      1.2095490000   -3.9498140000    0.0001210000
H     -2.1472420000   -4.4879610000    0.0000020000
H      2.1472430000   -4.4879610000    0.0001580000
C      0.0000000000   -4.6364330000    0.0000760000
H      0.0000000000   -5.7180980000    0.0001050000
58
[Geometry 3]
Fe     0.0000000000   -0.0181680000   -0.0000260000
N     -1.9057310000   -0.3530560000   -0.0000100000
N      0.0000010000   -1.9031800000    0.0000090000
N      1.9057320000   -0.3530560000   -0.0000070000
N      0.0000010000    1.7870590000   -0.0000770000
N     -0.0000020000    2.9109980000   -0.0000930000
C     -2.2883100000   -1.6370700000   -0.0000630000
C     -1.1971210000   -2.5580370000   -0.0000320000
C      1.1971220000   -2.5580370000    0.0000850000
C      2.2883110000   -1.6370700000    0.0001060000
C     -2.8861320000    0.6723470000    0.0002210000
C     -3.3253020000    1.1975540000   -1.2202200000
C     -4.2434470000    2.2413570000   -1.1976350000
H     -4.5885520000    2.6558760000   -2.1375220000
C     -4.7069630000    2.7576840000    0.0007370000
H     -5.4194680000    3.5721200000    0.0009410000
C     -4.2436100000    2.2406170000    1.1988520000
C     -3.3254680000    1.1967980000    1.2209200000
C      2.8861320000    0.6723470000   -0.0002540000
C      3.3254050000    1.1968600000   -1.2209510000
C      4.2435440000    2.2406820000   -1.1988740000
C      4.7069610000    2.7576860000   -0.0007580000
H      5.4194660000    3.5721220000   -0.0009560000
C      4.2435100000    2.2412940000    1.1976120000
H      4.5886730000    2.6557560000    2.1375040000
C      3.3253640000    1.1974930000    1.2201900000
H      4.5887210000    2.6546760000   -2.1389670000
H     -4.5888450000    2.6545540000    2.1389480000
C     -2.7814820000    0.6633810000   -2.5050360000
H     -3.2030890000    1.1858260000   -3.3608430000
H     -1.6939380000    0.7712370000   -2.5445430000
H     -2.9828680000   -0.4021870000   -2.6288950000
C     -2.7817700000    0.6618970000    2.5054850000
H     -2.9829450000   -0.4037900000    2.6286410000
H     -1.6942550000    0.7699660000    2.5452450000
H     -3.2036260000    1.1837100000    3.3615550000
C      2.7816100000    0.6620610000   -2.5055180000
H      1.6940940000    0.7701480000   -2.5451940000
H      3.2034120000    1.1839360000   -3.3615780000
H      2.9827610000   -0.4036170000   -2.6287740000
C      2.7816420000    0.6632170000    2.5050030000
H      3.2033030000    1.1856010000    3.3608210000
H      1.6941000000    0.7710530000    2.5445940000
H      2.9830550000   -0.4023590000    2.6287610000
C     -3.7167830000   -2.0467430000    0.0001450000
H     -3.8202720000   -3.1283650000   -0.0026000000
H     -4.2457230000   -1.6608440000    0.8745120000
H     -4.2472420000   -1.6561290000   -0.8711600000
C      3.7167840000   -2.0467430000    0.0000100000
H      4.2471790000   -1.6560950000    0.8713400000
H      3.8202720000   -3.1283640000    0.0028050000
H      4.2457890000   -1.6608780000   -0.8743310000
C     -1.2095480000   -3.9498140000    0.0000020000
C      1.2095490000   -3.9498140000    0.0001210000
H     -2.1472420000   -4.4879610000    0.0000020000
H      2.1472430000   -4.4879610000    0.0001580000
C      0.0000000000   -4.6364330000    0.0000760000
H      0.0000000000   -5.7180980000    0.0001050000
